<routes>

	<vType id="bike" length="1.8" width="0.8" maxSpeed="30" accel="0.8" decel="1.5" sigma="0.5" speedFactor="normc(1,0.1,0.2,2)" speedDev="0.5" vClass="bicycle"/>


	<flow id="bike" type="bike" from="beg" to="end" begin="0" end="0" number="100" departPos="last"/>


</routes>
